
     RDKit          3D

 26 25  0  0  0  0  0  0  0  0999 V2000
    2.8906    1.3701    2.1154 C   0  0  0  0  0  0  0  0  0  0  0  0
    2.5187    1.0104    0.7831 O   0  0  0  0  0  0  0  0  0  0  0  0
    1.3897    0.2514    0.7076 C   0  0  0  0  0  0  0  0  0  0  0  0
    0.7179   -0.1074    1.6685 O   0  0  0  0  0  0  0  0  0  0  0  0
    1.0519   -0.0714   -0.7471 C   0  0  0  0  0  0  0  0  0  0  0  0
    2.1127   -1.0255   -1.2950 C   0  0  0  0  0  0  0  0  0  0  0  0
    1.8238   -1.3467   -2.6582 O   0  0  0  0  0  0  0  0  0  0  0  0
   -0.2132   -0.7448   -0.8595 O   0  0  0  0  0  0  0  0  0  0  0  0
   -1.3341    0.1499   -0.7981 C   0  0  0  0  0  0  0  0  0  0  0  0
   -2.4473   -0.5251    0.0123 C   0  0  0  0  0  0  0  0  0  0  0  0
   -2.1222   -0.4944    1.4049 O   0  0  0  0  0  0  0  0  0  0  0  0
   -3.7768    0.1906   -0.1634 C   0  0  0  0  0  0  0  0  0  0  0  0
    3.0984    0.4749    2.7098 H   0  0  0  0  0  0  0  0  0  0  0  0
    3.8033    1.9700    2.0617 H   0  0  0  0  0  0  0  0  0  0  0  0
    2.1057    1.9735    2.5820 H   0  0  0  0  0  0  0  0  0  0  0  0
    1.0195    0.8479   -1.3439 H   0  0  0  0  0  0  0  0  0  0  0  0
    3.1138   -0.5855   -1.2571 H   0  0  0  0  0  0  0  0  0  0  0  0
    2.1299   -1.9657   -0.7326 H   0  0  0  0  0  0  0  0  0  0  0  0
    0.9000   -1.6653   -2.6620 H   0  0  0  0  0  0  0  0  0  0  0  0
   -1.0555    1.1020   -0.3305 H   0  0  0  0  0  0  0  0  0  0  0  0
   -1.6549    0.3375   -1.8278 H   0  0  0  0  0  0  0  0  0  0  0  0
   -2.5448   -1.5777   -0.2748 H   0  0  0  0  0  0  0  0  0  0  0  0
   -1.1661   -0.6930    1.4950 H   0  0  0  0  0  0  0  0  0  0  0  0
   -3.7091    1.2318    0.1710 H   0  0  0  0  0  0  0  0  0  0  0  0
   -4.1006    0.1780   -1.2085 H   0  0  0  0  0  0  0  0  0  0  0  0
   -4.5514   -0.2858    0.4473 H   0  0  0  0  0  0  0  0  0  0  0  0
  1  2  1  0
  2  3  1  0
  3  4  2  0
  3  5  1  0
  5  6  1  0
  6  7  1  0
  5  8  1  0
  8  9  1  0
  9 10  1  0
 10 11  1  0
 10 12  1  0
  1 13  1  0
  1 14  1  0
  1 15  1  0
  5 16  1  0
  6 17  1  0
  6 18  1  0
  7 19  1  0
  9 20  1  0
  9 21  1  0
 10 22  1  0
 11 23  1  0
 12 24  1  0
 12 25  1  0
 12 26  1  0
M  END

