
     RDKit          3D

 45 46  0  0  0  0  0  0  0  0999 V2000
   -3.7894    0.2461   -3.2128 O   0  0  0  0  0  0  0  0  0  0  0  0
   -2.4785    0.3733   -2.6667 C   0  0  0  0  0  0  0  0  0  0  0  0
   -2.4618    0.0256   -1.1712 C   0  0  1  0  0  0  0  0  0  0  0  0
   -1.1265    0.2253   -0.6966 O   0  0  0  0  0  0  0  0  0  0  0  0
   -0.9859   -0.1382    0.6775 C   0  0  0  0  0  0  0  0  0  0  0  0
    0.3770    0.0670    1.0901 O   0  0  0  0  0  0  0  0  0  0  0  0
    1.3009   -0.7659    0.3386 C   0  0  1  0  0  0  0  0  0  0  0  0
    2.0681    0.1379   -0.6450 C   0  0  2  0  0  0  0  0  0  0  0  0
    2.8484   -0.6490   -1.7097 C   0  0  0  0  0  0  0  0  0  0  0  0
    1.9595   -1.4209   -2.5124 O   0  0  0  0  0  0  0  0  0  0  0  0
    2.8936    1.0981    0.0427 O   0  0  0  0  0  0  0  0  0  0  0  0
    3.8041    0.5756    1.0049 C   0  0  2  0  0  0  0  0  0  0  0  0
    4.8667   -0.0917    0.3472 O   0  0  0  0  0  0  0  0  0  0  0  0
    3.1300   -0.3445    2.0376 C   0  0  1  0  0  0  0  0  0  0  0  0
    2.2951    0.4164    2.9343 O   0  0  0  0  0  0  0  0  0  0  0  0
    2.2788   -1.4087    1.3347 C   0  0  1  0  0  0  0  0  0  0  0  0
    1.5433   -2.1621    2.3122 O   0  0  0  0  0  0  0  0  0  0  0  0
   -1.8692    0.7735    1.5574 C   0  0  1  0  0  0  0  0  0  0  0  0
   -1.4454    2.1452    1.4352 O   0  0  0  0  0  0  0  0  0  0  0  0
   -3.3269    0.6616    1.1235 C   0  0  2  0  0  0  0  0  0  0  0  0
   -3.8399   -0.6359    1.4568 O   0  0  0  0  0  0  0  0  0  0  0  0
   -3.4780    0.8841   -0.3885 C   0  0  2  0  0  0  0  0  0  0  0  0
   -4.8290    0.5478   -0.7450 O   0  0  0  0  0  0  0  0  0  0  0  0
   -3.7022    0.3929   -4.1733 H   0  0  0  0  0  0  0  0  0  0  0  0
   -2.1284    1.3989   -2.8279 H   0  0  0  0  0  0  0  0  0  0  0  0
   -1.8006   -0.2922   -3.2112 H   0  0  0  0  0  0  0  0  0  0  0  0
   -2.7315   -1.0347   -1.0756 H   0  0  0  0  0  0  0  0  0  0  0  0
   -1.2488   -1.1937    0.8243 H   0  0  0  0  0  0  0  0  0  0  0  0
    0.7474   -1.5582   -0.1802 H   0  0  0  0  0  0  0  0  0  0  0  0
    1.3287    0.7454   -1.1813 H   0  0  0  0  0  0  0  0  0  0  0  0
    3.5786   -1.3337   -1.2700 H   0  0  0  0  0  0  0  0  0  0  0  0
    3.3958    0.0461   -2.3566 H   0  0  0  0  0  0  0  0  0  0  0  0
    2.4999   -1.8551   -3.1959 H   0  0  0  0  0  0  0  0  0  0  0  0
    4.2249    1.4385    1.5349 H   0  0  0  0  0  0  0  0  0  0  0  0
    5.4819    0.6106    0.0741 H   0  0  0  0  0  0  0  0  0  0  0  0
    3.8837   -0.8355    2.6630 H   0  0  0  0  0  0  0  0  0  0  0  0
    1.5718    0.7854    2.3843 H   0  0  0  0  0  0  0  0  0  0  0  0
    2.9284   -2.1175    0.8106 H   0  0  0  0  0  0  0  0  0  0  0  0
    1.2746   -1.5117    2.9932 H   0  0  0  0  0  0  0  0  0  0  0  0
   -1.7472    0.4905    2.6093 H   0  0  0  0  0  0  0  0  0  0  0  0
   -0.4775    2.1084    1.3104 H   0  0  0  0  0  0  0  0  0  0  0  0
   -3.9440    1.3934    1.6565 H   0  0  0  0  0  0  0  0  0  0  0  0
   -4.7101   -0.6734    1.0044 H   0  0  0  0  0  0  0  0  0  0  0  0
   -3.3163    1.9451   -0.6108 H   0  0  0  0  0  0  0  0  0  0  0  0
   -4.8443    0.4899   -1.7270 H   0  0  0  0  0  0  0  0  0  0  0  0
  1  2  1  0
  2  3  1  0
  3  4  1  0
  4  5  1  0
  5  6  1  0
  6  7  1  0
  7  8  1  0
  8  9  1  0
  9 10  1  0
  8 11  1  0
 11 12  1  0
 12 13  1  0
 12 14  1  0
 14 15  1  0
 14 16  1  0
 16 17  1  0
  5 18  1  0
 18 19  1  0
 18 20  1  0
 20 21  1  0
 20 22  1  0
 22 23  1  0
 22  3  1  0
 16  7  1  0
  1 24  1  0
  2 25  1  0
  2 26  1  0
  3 27  1  6
  5 28  1  0
  7 29  1  6
  8 30  1  6
  9 31  1  0
  9 32  1  0
 10 33  1  0
 12 34  1  1
 13 35  1  0
 14 36  1  1
 15 37  1  0
 16 38  1  6
 17 39  1  0
 18 40  1  1
 19 41  1  0
 20 42  1  1
 21 43  1  0
 22 44  1  1
 23 45  1  0
M  END

