
     RDKit          3D

 44 45  0  0  0  0  0  0  0  0999 V2000
    1.8354   -2.8331   -1.1060 C   0  0  0  0  0  0  0  0  0  0  0  0
    2.0879   -1.4087   -0.6266 C   0  0  2  0  0  0  0  0  0  0  0  0
    1.1262   -0.5517   -1.2508 O   0  0  0  0  0  0  0  0  0  0  0  0
    1.1446    0.7827   -0.7436 C   0  0  1  0  0  0  0  0  0  0  0  0
    0.2328    0.9635    0.3422 O   0  0  0  0  0  0  0  0  0  0  0  0
   -1.1401    0.7522   -0.0099 C   0  0  1  0  0  0  0  0  0  0  0  0
   -1.6016   -0.7012    0.2293 C   0  0  1  0  0  0  0  0  0  0  0  0
   -1.2122   -1.2984    1.5915 C   0  0  0  0  0  0  0  0  0  0  0  0
   -1.5571   -2.6886    1.6187 O   0  0  0  0  0  0  0  0  0  0  0  0
   -3.0189   -0.8603   -0.0141 O   0  0  0  0  0  0  0  0  0  0  0  0
   -3.8372    0.0236    0.7364 C   0  0  2  0  0  0  0  0  0  0  0  0
   -5.1872   -0.1745    0.3267 O   0  0  0  0  0  0  0  0  0  0  0  0
   -3.4908    1.4970    0.4632 C   0  0  1  0  0  0  0  0  0  0  0  0
   -4.2965    2.3651    1.2769 O   0  0  0  0  0  0  0  0  0  0  0  0
   -2.0162    1.7515    0.7648 C   0  0  1  0  0  0  0  0  0  0  0  0
   -1.8051    1.6549    2.1815 O   0  0  0  0  0  0  0  0  0  0  0  0
    2.5424    1.2434   -0.2659 C   0  0  2  0  0  0  0  0  0  0  0  0
    2.6849    2.6713   -0.3548 O   0  0  0  0  0  0  0  0  0  0  0  0
    3.6015    0.5706   -1.1319 C   0  0  1  0  0  0  0  0  0  0  0  0
    4.9156    1.0300   -0.7742 O   0  0  0  0  0  0  0  0  0  0  0  0
    3.5237   -0.9550   -0.9603 C   0  0  1  0  0  0  0  0  0  0  0  0
    4.4001   -1.3681    0.0972 O   0  0  0  0  0  0  0  0  0  0  0  0
    1.9204   -2.8996   -2.1967 H   0  0  0  0  0  0  0  0  0  0  0  0
    2.5386   -3.5390   -0.6550 H   0  0  0  0  0  0  0  0  0  0  0  0
    0.8163   -3.1465   -0.8527 H   0  0  0  0  0  0  0  0  0  0  0  0
    1.9239   -1.3960    0.4588 H   0  0  0  0  0  0  0  0  0  0  0  0
    0.8244    1.4424   -1.5601 H   0  0  0  0  0  0  0  0  0  0  0  0
   -1.2919    0.9812   -1.0743 H   0  0  0  0  0  0  0  0  0  0  0  0
   -1.1300   -1.3377   -0.5274 H   0  0  0  0  0  0  0  0  0  0  0  0
   -1.7403   -0.8320    2.4249 H   0  0  0  0  0  0  0  0  0  0  0  0
   -0.1379   -1.2198    1.7750 H   0  0  0  0  0  0  0  0  0  0  0  0
   -2.3951   -2.7790    1.1290 H   0  0  0  0  0  0  0  0  0  0  0  0
   -3.7946   -0.2077    1.8057 H   0  0  0  0  0  0  0  0  0  0  0  0
   -5.3809   -1.1014    0.5508 H   0  0  0  0  0  0  0  0  0  0  0  0
   -3.6999    1.7414   -0.5854 H   0  0  0  0  0  0  0  0  0  0  0  0
   -5.2189    2.0825    1.1094 H   0  0  0  0  0  0  0  0  0  0  0  0
   -1.7384    2.7780    0.4969 H   0  0  0  0  0  0  0  0  0  0  0  0
   -2.4645    2.2606    2.5791 H   0  0  0  0  0  0  0  0  0  0  0  0
    2.7047    0.9920    0.7901 H   0  0  0  0  0  0  0  0  0  0  0  0
    2.0143    3.0411    0.2522 H   0  0  0  0  0  0  0  0  0  0  0  0
    3.4414    0.8432   -2.1826 H   0  0  0  0  0  0  0  0  0  0  0  0
    4.8264    2.0030   -0.6953 H   0  0  0  0  0  0  0  0  0  0  0  0
    3.8918   -1.4272   -1.8786 H   0  0  0  0  0  0  0  0  0  0  0  0
    5.1579   -0.7456    0.0498 H   0  0  0  0  0  0  0  0  0  0  0  0
  1  2  1  0
  2  3  1  0
  3  4  1  0
  4  5  1  0
  5  6  1  0
  6  7  1  0
  7  8  1  0
  8  9  1  0
  7 10  1  0
 10 11  1  0
 11 12  1  0
 11 13  1  0
 13 14  1  0
 13 15  1  0
 15 16  1  0
  4 17  1  0
 17 18  1  0
 17 19  1  0
 19 20  1  0
 19 21  1  0
 21 22  1  0
 21  2  1  0
 15  6  1  0
  1 23  1  0
  1 24  1  0
  1 25  1  0
  2 26  1  1
  4 27  1  6
  6 28  1  6
  7 29  1  6
  8 30  1  0
  8 31  1  0
  9 32  1  0
 11 33  1  1
 12 34  1  0
 13 35  1  6
 14 36  1  0
 15 37  1  6
 16 38  1  0
 17 39  1  1
 18 40  1  0
 19 41  1  6
 20 42  1  0
 21 43  1  6
 22 44  1  0
M  END

