
     RDKit          3D

 29 30  0  0  0  0  0  0  0  0999 V2000
    0.6513   -2.0006   -1.6006 C   0  0  0  0  0  0  0  0  0  0  0  0
    0.7436   -1.0704   -0.3989 C   0  0  1  0  0  0  0  0  0  0  0  0
    2.1699   -0.6040   -0.1232 C   0  0  0  0  0  0  0  0  0  0  0  0
    1.9354    0.5732    0.7137 N   0  0  0  0  0  0  0  0  0  0  0  0
    3.1403    1.3642    0.9160 C   0  0  0  0  0  0  0  0  0  0  0  0
    0.8737    1.3272    0.0349 C   0  0  0  0  0  0  0  0  0  0  0  0
   -0.0400    0.2470   -0.5832 C   0  0  2  0  0  0  0  0  0  0  0  0
   -1.4243    0.1848    0.0180 C   0  0  0  0  0  0  0  0  0  0  0  0
   -2.5589    0.1624   -0.7991 C   0  0  0  0  0  0  0  0  0  0  0  0
   -3.8258    0.0961   -0.2261 C   0  0  0  0  0  0  0  0  0  0  0  0
   -3.9205    0.0504    1.1540 C   0  0  0  0  0  0  0  0  0  0  0  0
   -2.8535    0.0638    1.9789 N   0  0  0  0  0  0  0  0  0  0  0  0
   -1.6345    0.1268    1.3952 C   0  0  0  0  0  0  0  0  0  0  0  0
    1.2490   -2.9030   -1.4356 H   0  0  0  0  0  0  0  0  0  0  0  0
   -0.3850   -2.3078   -1.7743 H   0  0  0  0  0  0  0  0  0  0  0  0
    1.0179   -1.5162   -2.5118 H   0  0  0  0  0  0  0  0  0  0  0  0
    0.3803   -1.6188    0.4815 H   0  0  0  0  0  0  0  0  0  0  0  0
    2.7467   -1.3707    0.4044 H   0  0  0  0  0  0  0  0  0  0  0  0
    2.6918   -0.3463   -1.0540 H   0  0  0  0  0  0  0  0  0  0  0  0
    2.9239    2.2343    1.5454 H   0  0  0  0  0  0  0  0  0  0  0  0
    3.9006    0.7733    1.4380 H   0  0  0  0  0  0  0  0  0  0  0  0
    3.5708    1.7203   -0.0268 H   0  0  0  0  0  0  0  0  0  0  0  0
    1.2896    1.9384   -0.7777 H   0  0  0  0  0  0  0  0  0  0  0  0
    0.3584    2.0023    0.7260 H   0  0  0  0  0  0  0  0  0  0  0  0
   -0.1314    0.4760   -1.6542 H   0  0  0  0  0  0  0  0  0  0  0  0
   -2.4649    0.1947   -1.8815 H   0  0  0  0  0  0  0  0  0  0  0  0
   -4.7180    0.0790   -0.8415 H   0  0  0  0  0  0  0  0  0  0  0  0
   -4.8863   -0.0016    1.6479 H   0  0  0  0  0  0  0  0  0  0  0  0
   -0.8001    0.1253    2.0935 H   0  0  0  0  0  0  0  0  0  0  0  0
  1  2  1  0
  2  3  1  0
  3  4  1  0
  4  5  1  0
  4  6  1  0
  6  7  1  0
  7  8  1  0
  8  9  2  0
  9 10  1  0
 10 11  2  0
 11 12  1  0
 12 13  2  0
  7  2  1  0
 13  8  1  0
  1 14  1  0
  1 15  1  0
  1 16  1  0
  2 17  1  1
  3 18  1  0
  3 19  1  0
  5 20  1  0
  5 21  1  0
  5 22  1  0
  6 23  1  0
  6 24  1  0
  7 25  1  6
  9 26  1  0
 10 27  1  0
 11 28  1  0
 13 29  1  0
M  END

