
     RDKit          3D

 25 25  0  0  0  0  0  0  0  0999 V2000
   -1.1386   -1.9857    0.2957 C   0  0  0  0  0  0  0  0  0  0  0  0
   -0.6896   -0.7528   -0.5013 C   0  0  0  0  0  0  0  0  0  0  0  0
    0.7029   -0.2351   -0.1628 C   0  0  0  0  0  0  0  0  0  0  0  0
    1.3336   -0.4723    1.0682 C   0  0  0  0  0  0  0  0  0  0  0  0
    2.6065    0.0425    1.3290 C   0  0  0  0  0  0  0  0  0  0  0  0
    3.2652    0.8051    0.3674 C   0  0  0  0  0  0  0  0  0  0  0  0
    2.6520    1.0575   -0.8564 C   0  0  0  0  0  0  0  0  0  0  0  0
    1.3808    0.5438   -1.1183 C   0  0  0  0  0  0  0  0  0  0  0  0
   -1.7089    0.3089   -0.4321 N   0  0  0  0  0  0  0  0  0  0  0  0
   -1.7692    1.1786    0.7317 C   0  0  0  0  0  0  0  0  0  0  0  0
   -2.7502    0.2971   -1.3405 C   0  0  0  0  0  0  0  0  0  0  0  0
   -2.8915   -0.4978   -2.2608 O   0  0  0  0  0  0  0  0  0  0  0  0
   -1.2943   -1.7570    1.3553 H   0  0  0  0  0  0  0  0  0  0  0  0
   -0.3991   -2.7908    0.2258 H   0  0  0  0  0  0  0  0  0  0  0  0
   -2.0893   -2.3699   -0.0906 H   0  0  0  0  0  0  0  0  0  0  0  0
   -0.6382   -1.0932   -1.5453 H   0  0  0  0  0  0  0  0  0  0  0  0
    0.8474   -1.0565    1.8448 H   0  0  0  0  0  0  0  0  0  0  0  0
    3.0844   -0.1526    2.2857 H   0  0  0  0  0  0  0  0  0  0  0  0
    4.2554    1.2033    0.5723 H   0  0  0  0  0  0  0  0  0  0  0  0
    3.1614    1.6543   -1.6085 H   0  0  0  0  0  0  0  0  0  0  0  0
    0.9117    0.7548   -2.0782 H   0  0  0  0  0  0  0  0  0  0  0  0
   -0.8614    1.7845    0.7873 H   0  0  0  0  0  0  0  0  0  0  0  0
   -1.8676    0.5695    1.6342 H   0  0  0  0  0  0  0  0  0  0  0  0
   -2.6290    1.8523    0.6721 H   0  0  0  0  0  0  0  0  0  0  0  0
   -3.4746    1.1115   -1.1749 H   0  0  0  0  0  0  0  0  0  0  0  0
  1  2  1  0
  2  3  1  0
  3  4  2  0
  4  5  1  0
  5  6  2  0
  6  7  1  0
  7  8  2  0
  2  9  1  0
  9 10  1  0
  9 11  1  0
 11 12  2  0
  8  3  1  0
  1 13  1  0
  1 14  1  0
  1 15  1  0
  2 16  1  0
  4 17  1  0
  5 18  1  0
  6 19  1  0
  7 20  1  0
  8 21  1  0
 10 22  1  0
 10 23  1  0
 10 24  1  0
 11 25  1  0
M  END

