
     RDKit          3D

 25 24  0  0  0  0  0  0  0  0999 V2000
   -2.8266   -1.5655   -0.0708 O   0  0  0  0  0  0  0  0  0  0  0  0
   -1.8685   -1.5171    0.9792 C   0  0  0  0  0  0  0  0  0  0  0  0
   -0.8728   -0.3653    0.7759 C   0  0  0  0  0  0  0  0  0  0  0  0
   -1.6204    0.9709    0.8377 C   0  0  0  0  0  0  0  0  0  0  0  0
   -0.6976    2.0396    1.0095 O   0  0  0  0  0  0  0  0  0  0  0  0
   -0.0920   -0.5240   -0.5454 C   0  0  2  0  0  0  0  0  0  0  0  0
    0.4702   -1.8497   -0.6004 O   0  0  0  0  0  0  0  0  0  0  0  0
    1.0464    0.4810   -0.8059 C   0  0  2  0  0  0  0  0  0  0  0  0
    1.7063    0.0605   -2.0257 O   0  0  0  0  0  0  0  0  0  0  0  0
    2.1147    0.5326    0.2911 C   0  0  0  0  0  0  0  0  0  0  0  0
    3.1863    1.3673   -0.1709 O   0  0  0  0  0  0  0  0  0  0  0  0
   -2.4145   -2.0776   -0.7916 H   0  0  0  0  0  0  0  0  0  0  0  0
   -1.3640   -2.4873    1.0429 H   0  0  0  0  0  0  0  0  0  0  0  0
   -2.4150   -1.3825    1.9190 H   0  0  0  0  0  0  0  0  0  0  0  0
   -0.1602   -0.4164    1.6090 H   0  0  0  0  0  0  0  0  0  0  0  0
   -2.1977    1.1509   -0.0755 H   0  0  0  0  0  0  0  0  0  0  0  0
   -2.3060    0.9922    1.6915 H   0  0  0  0  0  0  0  0  0  0  0  0
   -1.2231    2.8582    1.0666 H   0  0  0  0  0  0  0  0  0  0  0  0
   -0.7864   -0.4695   -1.3934 H   0  0  0  0  0  0  0  0  0  0  0  0
    1.0669   -1.8234   -1.3797 H   0  0  0  0  0  0  0  0  0  0  0  0
    0.6560    1.4836   -1.0056 H   0  0  0  0  0  0  0  0  0  0  0  0
    2.5198    0.6082   -2.0494 H   0  0  0  0  0  0  0  0  0  0  0  0
    1.7270    0.9487    1.2240 H   0  0  0  0  0  0  0  0  0  0  0  0
    2.5382   -0.4587    0.4800 H   0  0  0  0  0  0  0  0  0  0  0  0
    3.8130    1.4432    0.5705 H   0  0  0  0  0  0  0  0  0  0  0  0
  1  2  1  0
  2  3  1  0
  3  4  1  0
  4  5  1  0
  3  6  1  0
  6  7  1  0
  6  8  1  0
  8  9  1  0
  8 10  1  0
 10 11  1  0
  1 12  1  0
  2 13  1  0
  2 14  1  0
  3 15  1  0
  4 16  1  0
  4 17  1  0
  5 18  1  0
  6 19  1  6
  7 20  1  0
  8 21  1  6
  9 22  1  0
 10 23  1  0
 10 24  1  0
 11 25  1  0
M  END

